# created with PyMOL 2.4.0
@<TRIPOS>MOLECULE
FAD
53 58 1                 
SMALL
USER_CHARGES
@<TRIPOS>ATOM
1	   P	146.479	26.111	174.416	P.3	1	FAD600	0.000	
2	  PA	146.950	23.275	174.546	P.3	1	FAD600	0.000	
3	 O1P	145.352	26.263	175.420	O.co2	1	FAD600	0.000	
4	 O2P	146.323	27.066	173.222	O.co2	1	FAD600	0.000	
5	 O3P	146.540	24.620	173.792	O.3	1	FAD600	0.000	
6	 C5*	149.016	26.388	174.522	C.3	1	FAD600	0.000	
7	 O5*	147.785	26.398	175.193	O.3	1	FAD600	0.000	
8	 C4*	150.169	26.670	175.466	C.3	1	FAD600	0.000	
9	 O4*	150.372	25.645	176.390	O.3	1	FAD600	0.000	
10	 C3*	151.387	26.728	174.582	C.3	1	FAD600	0.000	
11	 O3*	151.399	27.859	173.717	O.3	1	FAD600	0.000	
12	 C2*	152.655	26.653	175.371	C.3	1	FAD600	0.000	
13	 O2*	152.876	26.009	176.382	O.3	1	FAD600	0.000	
14	 C1*	153.818	27.358	174.836	C.3	1	FAD600	0.000	
15	 C1B	143.490	18.655	173.446	C.3	1	FAD600	0.000	
16	  N1	154.923	28.701	176.913	N.3	1	FAD600	0.000	
17	 N1A	139.363	16.519	171.227	N.3	1	FAD600	0.000	
18	 O1A	147.914	22.470	173.641	O.co2	1	FAD600	0.000	
19	  C2	155.404	29.409	177.936	C.3	1	FAD600	0.000	
20	 C2A	139.606	16.742	172.523	C.3	1	FAD600	0.000	
21	 C2B	144.940	18.473	173.605	C.3	1	FAD600	0.000	
22	  O2	154.669	30.463	178.452	O.3	1	FAD600	0.000	
23	 O2A	147.605	23.493	175.915	O.co2	1	FAD600	0.000	
24	 O2B	145.223	17.163	174.105	O.3	1	FAD600	0.000	
25	 C3B	145.271	19.467	174.560	C.3	1	FAD600	0.000	
26	  N3	156.616	29.146	178.444	N.3	1	FAD600	0.000	
27	 N3A	140.761	17.293	172.918	N.3	1	FAD600	0.000	
28	 O3B	145.171	18.995	175.880	O.3	1	FAD600	0.000	
29	  C4	157.375	28.153	177.956	C.3	1	FAD600	0.000	
30	 C4A	141.689	17.659	172.035	C.3	1	FAD600	0.000	
31	 C4B	144.294	20.558	174.396	C.3	1	FAD600	0.000	
32	 C4X	156.905	27.389	176.913	C.3	1	FAD600	0.000	
33	  O4	158.583	27.887	178.489	O.3	1	FAD600	0.000	
34	 O4B	143.319	20.057	173.526	O.3	1	FAD600	0.000	
35	 C5A	141.475	17.450	170.675	C.3	1	FAD600	0.000	
36	 C5B	144.939	21.811	173.884	C.3	1	FAD600	0.000	
37	 C5X	157.087	25.648	175.380	C.3	1	FAD600	0.000	
38	  N5	157.630	26.384	176.392	N.3	1	FAD600	0.000	
39	 O5B	145.631	22.498	174.830	O.3	1	FAD600	0.000	
40	  C6	157.825	24.574	174.880	C.3	1	FAD600	0.000	
41	 C6A	140.255	16.859	170.307	C.3	1	FAD600	0.000	
42	 N6A	139.955	16.602	168.923	N.3	1	FAD600	0.000	
43	  C7	157.313	23.791	173.850	C.3	1	FAD600	0.000	
44	 C7M	158.160	22.597	173.307	C.3	1	FAD600	0.000	
45	 N7A	142.572	17.898	170.045	N.3	1	FAD600	0.000	
46	  C8	156.068	24.066	173.322	C.3	1	FAD600	0.000	
47	 C8A	143.442	18.384	170.953	C.3	1	FAD600	0.000	
48	 C8M	155.486	23.241	172.212	C.3	1	FAD600	0.000	
49	  C9	155.328	25.135	173.826	C.3	1	FAD600	0.000	
50	 C9A	155.828	25.925	174.868	C.3	1	FAD600	0.000	
51	 N9A	142.916	18.220	172.173	N.3	1	FAD600	0.000	
52	 C10	155.640	27.685	176.404	C.3	1	FAD600	0.000	
53	 N10	155.141	26.980	175.374	N.3	1	FAD600	0.000	
@<TRIPOS>BOND
1 1 3 1
2 1 4 1
3 1 5 1
4 2 5 1
5 2 18 1
6 2 23 1
7 2 39 1
8 6 7 1
9 1 7 1
10 6 8 1
11 8 9 1
12 8 10 1
13 10 11 1
14 10 12 1
15 12 13 1
16 12 14 1
17 15 51 1
18 16 19 1
19 16 52 1
20 17 20 1
21 19 22 1
22 19 26 1
23 20 27 1
24 15 21 1
25 21 24 1
26 21 25 1
27 25 28 1
28 26 29 1
29 27 30 1
30 29 32 1
31 29 33 1
32 25 31 1
33 31 34 1
34 32 38 1
35 32 52 1
36 15 34 1
37 30 35 1
38 35 41 1
39 31 36 1
40 37 40 1
41 37 50 1
42 37 38 1
43 36 39 1
44 40 43 1
45 17 41 1
46 41 42 1
47 43 44 1
48 43 46 1
49 35 45 1
50 46 48 1
51 46 49 1
52 45 47 1
53 49 50 1
54 50 53 1
55 30 51 1
56 47 51 1
57 14 53 1
58 52 53 1
@<TRIPOS>SUBSTRUCTURE
1	FAD600	1	GROUP	1 A	FAD
